units		metal
atom_style	atomic
boundary 	p p p

read_restart Restarts_6/restart.equilibrate_BaTiO3-E0_BaTiO3_init_300_4_6_100000.5000
Reading restart file ...
  restart file = 27 Jun 2024, LAMMPS = 27 Jun 2024
  restoring atom style atomic/kk from restart
  orthogonal box = (0 0 0) to (47.593015 47.593015 51.648308)
  pair style allegro stores no restart info
  8640 atoms
  read_restart CPU = 0.146 seconds

pair_style allegro
pair_coeff      * * BaTiO3-E0.pth Ba O Ti
mass 1 137.3
mass 2 15.9994
mass 3 47.9

timestep 0.002

compute polarization all allegro polarization 3
compute allegro will evaluate the quantity polarization of length 3 (src/compute_allegro.cpp:71)
compute polarizability all allegro polarizability 9
compute allegro will evaluate the quantity polarizability of length 9 (src/compute_allegro.cpp:71)
compute borncharges all allegro/atom born_charge 9 1
compute allegro/atom will evaluate the quantity born_charge of length 9 with newton 1 (src/compute_allegro.cpp:63)

thermo_style custom pe fmax fnorm spcpu cpuremain

reset_timestep 0

variable interval equal 1000
thermo 10

restart 5000 Restarts_6/restart.hyst_BaTiO3-E0_BaTiO3_init_300_4_6_100000.*

variable nintervals equal $(v_PERIOD/v_interval)
variable nintervals equal 100
variable efield equal 1e-2*36.36*cos((step/100000)*2*3.14)
fix born all addbornforce 0.0 0.0 v_efield

variable Px equal f_born[1]+c_polarization[1]
variable Py equal f_born[2]+c_polarization[2]
variable Pz equal (f_born[3]+c_polarization[3])/vol
variable pe equal pe

fix aveP all ave/time 1 500 1000 v_efield v_Pz v_pe f_born file Dumps_6/Pz.BaTiO3-E0.BaTiO3_init.300.4.6.100000.5000

thermo_style custom step time temp press pe f_born v_efield v_Pz spcpu cpuremain

dump 4a all custom 10 Dumps_6/dump.hyst.BaTiO3-E0.BaTiO3_init.300.4.6.100000.5000.bin id type xu yu zu fx fy fz c_borncharges[*]
dump_modify 4a sort id

fix nvt all nvt temp 300 300 $(100*dt)
fix nvt all nvt temp 300 300 0.2000000000000000111
  fix style: nvt/kk, fix ID: nvt

run $(v_PERIOD) upto
run 100000 upto
All restart file global fix info was re-assigned
Step          Time           Temp          Press          PotEng         f_born        v_efield         v_Pz          S/CPU         CPULeft
0   0              302.73221      134901.21     -6461040.2     -2441.5696      0.3636         0.057398785    0              0
Averages over the last 5001 of 10001 rows, steps 50000 to 100000:
Temp Press PotEng f_born v_efield v_Pz
302.113 115115 -6.46119e+06 -22805.4 -0.000553158 -0.00627725
Loop time of 4545.48 on 32 procs for 10000 steps with 8640 atoms
