units		metal
atom_style	atomic

read_data BaTiO3-sc333.data
Reading data file ...
  orthogonal box = (0 0 0) to (11.898253 11.898253 12.912076)
  reading atoms ...
  135 atoms
replicate $L $L $L
replicate 2 $L $L
replicate 2 2 $L
replicate 2 2 2
Replication is creating a 2x2x2 = 8 times larger system...
  orthogonal box = (0 0 0) to (23.796507 23.796507 25.824152)
  1080 atoms
  replicate CPU = 0.003 seconds

pair_style allegro
pair_coeff	* * BaTiO3-E0.pth Ba Ti O
mass 1 137.3
mass 2 47.9
mass 3 15.9994

timestep 0.002
compute polarization all allegro polarization 3
compute allegro will evaluate the quantity polarization of length 3 (src/compute_allegro.cpp:53)
compute polarizability all allegro polarizability 9
compute allegro will evaluate the quantity polarizability of length 9 (src/compute_allegro.cpp:53)

thermo_style custom pe fmax fnorm spcpu cpuremain

variable efield equal 1e-2*36.36
fix born all addbornforce 0.0 0.0 0.3636

thermo 10
min_style fire
#minimize 0.0 1e-6 100 100
velocity all create 320 24314 dist gaussian rot yes mom yes
fix nvt all nvt temp 320 320 $(100*dt)
fix nvt all nvt temp 320 320 0.2000000000000000111
run 5000
    PotEng          Fmax          Fnorm          S/CPU         CPULeft
Loop time of 196.251 on 32 procs for 5000 steps with 1080 atoms

reset_timestep 0

variable interval equal 1000
thermo 10

variable nintervals equal $(v_PERIOD/v_interval)
variable nintervals equal 100
variable efield equal 1e-2*36.36*cos((step/100000)*2*3.14)
fix born all addbornforce 0.0 0.0 v_efield

variable Px equal f_born[1]+c_polarization[1]
variable Py equal f_born[2]+c_polarization[2]
variable Pz equal (f_born[3]+c_polarization[3])/vol
variable pe equal pe

fix aveP all ave/time 1 500 1000 v_efield v_Pz v_pe f_born file Pz.BaTiO3-E0.BaTiO3-sc333.320.2.2

thermo_style custom step time temp press pe f_born v_efield v_Pz spcpu cpuremain

# dump_modify 4a sort id

fix nvt all nvt temp 320 320 $(100*dt)
fix nvt all nvt temp 320 320 0.2000000000000000111

run $(v_PERIOD)
run 100000
Step          Time           Temp          Press          PotEng         f_born        v_efield         v_Pz          S/CPU         CPULeft
0   0              324.71254      129457.78     -807635.21     -295.58728      0.3636         0.055591627    0              0
Averages over the last 5001 of 10001 rows, steps 50000 to 100000:
Temp Press PotEng f_born v_efield v_Pz
321.083 115883 -807646 -2850.37 -0.000553158 -0.00620944
Loop time of 3545.95 on 32 procs for 100000 steps with 1080 atoms
